18
energy=-10489.5581284419
C     -1.17013400    -1.47577800     0.17499400
C     -2.36115200    -0.82167100    -0.11882700
C     -2.44013100     0.67150000    -0.17860000
C     -1.26232400     1.36909200     0.06036600
C     -0.01854000     0.72312800     0.05670200
C      1.14443200     1.48662600     0.08318700
C      2.37277300     0.72866500    -0.14058400
C      2.41308900    -0.64482500    -0.18170100
C      1.29853900    -1.33188900     0.11907300
C     -0.00372600    -0.72396500     0.19946100
H     -1.05564800    -2.48924200     0.09474900
H     -3.32851200    -1.29527400    -0.20771000
H     -3.36504000     1.08420200    -0.49368200
H     -1.16999300     2.46280100    -0.02921400
H      1.30703300     2.58903200     0.17226800
H      3.21337900     1.42991800    -0.34670400
H      3.40092000    -1.12765600    -0.30782800
H      1.32176500    -2.42597400     0.23607700
5
energy=-0.66606164
C      0.99825996    -0.00246000    -0.00436000
H      2.09020996    -0.00243000     0.00414000
H      0.63378996     1.02686000     0.00414000
H      0.62703997    -0.52772999     0.87810999
H      0.64135998    -0.50746995    -0.90539992
8
energy=-1.13531351
C      1.00404000    -0.00295000    -0.00640000
C      2.51595998    -0.00702000     0.00059000
H      0.62234998     1.02239990    -0.00164000
H      0.61410999    -0.51973999     0.87560993
H      0.62236995    -0.50841999    -0.89856994
H      2.89764977     0.50209999     0.89061993
H      2.90588999     0.50608999    -0.88356996
H      2.89762998    -1.03242993     0.00006000
10
energy=-1.89252913
C      1.00000000     0.00000000     0.00000000
C      2.19015980     0.00000000     0.00000000
C      3.63415980     0.00000000     0.00000000
C      4.11617994     1.36116993     0.00000000
C      4.51345968     2.48306990     0.00000000
C      5.04118967     3.92468977     0.00000000
N      5.44846964     5.01174974     0.00000000
H     -0.06559999     0.00303000     0.00000000
H      4.01199007    -0.53451997    -0.87853998
H      4.01199007    -0.53451997     0.87853998
9
energy=-4214.8193920471795
C     -0.29123100    -0.46010800    -0.05812200
C     -0.90662300     0.76826800     0.43630500
O      1.11764200    -0.31384200    -0.32022700
H     -0.43034200    -1.36632800     0.58569600
H     -0.90759600    -0.96809700    -0.92175300
H     -1.72145000     0.45210900     1.13255700
H     -0.29537100     1.36541300     1.10303700
H     -1.38698300     1.35477800    -0.38580500
H      1.27375300     0.47029300    -0.93710600
9
energy=-4214.893109578943
C     -0.21507000    -0.52626600    -0.04029500
C     -0.97353200     0.79733700     0.47374700
O      1.11200200    -0.28674900    -0.36595000
H     -0.30351900    -1.27360900     0.79951900
H     -0.84119900    -0.83900200    -0.84978100
H     -2.01186800     0.46487200     0.46013900
H     -0.67906300     1.07082900     1.53738300
H     -0.75787000     1.75414200    -0.11359800
H      1.10479500     0.14284600    -1.18986000
9
energy=-4214.704913056676
C     -0.28843100    -0.45476200    -0.04340200
C     -0.95779200     0.74821100     0.45902900
O      1.14426800    -0.29923500    -0.35513100
H     -0.30712600    -1.24072800     0.76352200
H     -0.66569700    -0.93974400    -0.91309100
H     -2.08270800     0.52830500     0.75733300
H     -0.43690500     0.96418900     1.47144700
H     -0.95793000     1.75832300    -0.23330100
H      1.13608700     0.18125900    -1.16142200
9
energy=-4214.137288062097
C     -0.27457100    -0.50767600     0.04393700
C     -1.01921000     0.79690000     0.54475000
O      1.11475500    -0.29285700    -0.55194100
H     -0.10918400    -1.27724000     0.87759800
H     -0.79726800    -0.94297800    -0.80366300
H     -2.02308300     0.61256800     0.41446700
H     -0.44447300     1.17989800     1.44692400
H     -0.54530300     1.28045600    -0.19833200
H      1.64021200     0.34800100     0.00931700
9
energy=-4214.099562031135
C     -0.26874000    -0.50382100     0.04199100
C     -1.02047200     0.79493200     0.54444400
O      1.10869400    -0.29516900    -0.55139800
H     -0.10624000    -1.28493800     0.89413200
H     -0.78564400    -0.94368300    -0.81931600
H     -2.03059700     0.59724300     0.40911900
H     -0.44154000     1.19863100     1.45333100
H     -0.52498000     1.29460600    -0.18615600
H      1.65167200     0.35306300     0.01342000